# example script at
# /work/ollie/mlosch/raslyboca/python/llc270/calc_overturning.py

 &LAYERS_PARM01
 layers_taveFreq=0.,
 layers_diagFreq=0.,
 layers_name(1) = 'RHO',
# = useGMredi
#layers_bolus(1)=.TRUE.,
# with 50 levels rF(37) = -1914.2 meters * 9.81*.1035=1934.5 dbar
# with 50 levels rF(38) = -1993.6 meters * 9.81*.1035=2116.0 dbar
 layers_krho(1) = 37,
#layers_krho(1) = 13,
#- define layer resolution in terms of potential density minus 1000
#  (ref to k=37, approx. 2000dBar)
 layers_bounds(1:89,1) = 0.00,
    30.0000, 30.5000, 31.0000, 31.5000, 32.0000, 32.5000, 33.0000, 33.5000,
    33.6105, 33.7210, 33.8316, 33.9421, 34.0526, 34.1631, 34.2736, 34.3842,
    34.4947, 34.6052, 34.7157, 34.8262, 34.9367, 35.0473, 35.1578, 35.2683,
    35.3788, 35.4893, 35.5999, 35.7104, 35.8209, 35.9314, 36.0419, 36.1443,
    36.2255, 36.2915, 36.3512, 36.4083, 36.4614, 36.5097, 36.5529, 36.5892,
    36.6207, 36.6476, 36.6697, 36.6873, 36.7022, 36.7155, 36.7278, 36.7386,
    36.7487, 36.7578, 36.7657, 36.7730, 36.7794, 36.7853, 36.7908, 36.7959,
    36.8009, 36.8057, 36.8104, 36.8149, 36.8195, 36.8240, 36.8283, 36.8325,
    36.8368, 36.8409, 36.8451, 36.8492, 36.8530, 36.8568, 36.8605, 36.8644,
    36.8682, 36.8720, 36.8756, 36.8789, 36.8821, 36.8854, 36.8862, 37.2322,
    37.5781, 37.9241, 38.2701, 38.6161, 38.9621, 39.3080, 39.6540, 40.0000,
#
# Dimas layers, do not work for me because I get denser bottom water
#layers_bounds(1:89,1) =
# 0.0000,   30.00000, 30.55556, 31.11111, 31.36000, 31.66667, 31.91000,
# 32.22222, 32.46000, 32.77778, 33.01000, 33.33333, 33.56000, 33.88889,
# 34.11000, 34.44444, 34.62000, 35.00000, 35.05000, 35.10622, 35.20319,
# 35.29239, 35.37498, 35.41300, 35.45187, 35.52380, 35.59136, 35.65506,
# 35.71531, 35.77247, 35.82685, 35.87869, 35.92823, 35.97566, 35.98000,
# 36.02115, 36.06487, 36.10692, 36.14746, 36.18656, 36.22434, 36.26089,
# 36.29626, 36.33056, 36.36383, 36.39613, 36.42753, 36.45806, 36.48778,
# 36.51674, 36.54495, 36.57246, 36.59500, 36.59932, 36.62555, 36.65117,
# 36.67621, 36.68000, 36.70071, 36.72467, 36.74813, 36.75200, 36.77111,
# 36.79363, 36.81570, 36.83733, 36.85857, 36.87500, 36.87940, 36.89985,
# 36.91993, 36.93965, 36.95904, 36.97808, 36.99682, 37.01524, 37.03336,
# 37.05119, 37.06874, 37.08602, 37.10303, 37.11979, 37.13630, 37.15257,
# 37.16861, 37.18441, 37.50000, 37.75000, 40.00000,
 &
