# Example "data.mnc" file
# Lines beginning "#" are comments
 &MNC_01
# mnc_echo_gvtypes=.FALSE.,
# mnc_use_indir=.FALSE.,
#mnc_use_outdir=.TRUE.,
#mnc_outdir_str='mnc',
#mnc_outdir_date=.TRUE.,
 snapshot_mnc=.false.,
 timeave_mnc =.false.,
 monitor_mnc=.false.,
 pickup_write_mnc=.false.,
 pickup_read_mnc=.false.,
 readgrid_mnc =  .FALSE.,
 writegrid_mnc =  .FALSE.,
 &
# Note: Some systems use & as the
# namelist terminator. Other systems
# use a / character (as shown here).
