#
# *******************
# Calendar Parameters
# *******************
 &CAL_NML
 TheCalendar='gregorian',
# TheCalendar='noLeapYear',
 calendarDumps=.TRUE.,
#TheCalendar='model',
 startDate_1=19580101,
 startDate_2=000000,
 /
